Circuit: * C:\DATA\SourceControll\SUF-GitHub\Electronics\suf-electronics-motor-driver\SIM\driver_filtered.asc

Direct Newton iteration for .op point succeeded.
Changing Tseed to 1e-010
Heightened Def Con from 1.00001e-010 to 1.1e-009

Date: Sun Feb 01 06:16:58 2015
Total elapsed time: 8.807 seconds.

tnom = 27
temp = 27
method = modified trap
totiter = 983637
traniter = 983599
tranpoints = 344115
accept = 252787
rejected = 91328
matrix size = 38
fillins = 16
solver = Normal
Matrix Compiler1: 2,90 KB object code size  1.2/0.8/[0.6]
Matrix Compiler2: off  [0.8]/1.2/1.1


