Circuit: * C:\DATA\SourceControll\SUF-GitHub\Electronics\suf-electronics-motor-driver\SIM\driver_v2_resistive.asc

Direct Newton iteration failed to find .op point.  (Use ".option noopiter" to skip.)
Starting Gmin stepping
Gmin = 10
Gmin = 1.07374
Gmin = 0.115292
Gmin = 0.0123794
Gmin = 0.00132923
Gmin = 0.000142725
Gmin = 1.5325e-005
Gmin = 1.6455e-006
Gmin = 1.76685e-007
Gmin = 1.89714e-008
Gmin = 2.03704e-009
Gmin = 2.18725e-010
Gmin = 2.34854e-011
Gmin = 2.52173e-012
Gmin = 2.70769e-013
Gmin = 0
Gmin stepping succeeded in finding the operating point.

Heightened Def Con from 1.00148e-011 to 1.1e-009
Heightened Def Con from 0.024425 to 0.024425

Date: Fri Apr 24 05:11:17 2015
Total elapsed time: 91.764 seconds.

tnom = 27
temp = 27
method = modified trap
totiter = 8682514
traniter = 8682075
tranpoints = 3164943
accept = 2363629
rejected = 801316
matrix size = 63
fillins = 30
solver = Normal
Matrix Compiler1: 4,96 KB object code size  2.4/1.0/[0.7]
Matrix Compiler2: 5,48 KB object code size  1.7/2.8/[1.7]


