Circuit: * C:\DATA\Source Control\SUF-Github\Electronics\suf-electronics-motor-driver\SIM\driver_filtered.asc

Direct Newton iteration for .op point succeeded.
Changing Tseed to 1e-010
Heightened Def Con from 1.02136e-010 to 1.1e-009

Date: Fri Jan 23 15:29:54 2015
Total elapsed time: 121.930 seconds.

tnom = 27
temp = 27
method = modified trap
totiter = 9108913
traniter = 9108885
tranpoints = 2884656
accept = 1987689
rejected = 896967
matrix size = 35
fillins = 16
solver = Normal
Matrix Compiler1: 2,79 KB object code size  4.5/2.8/[1.4]
Matrix Compiler2: 3,11 KB object code size  1.8/3.1/[1.9]


