Circuit: * C:\DATA\SourceControll\SUF-GitHub\Electronics\suf-electronics-motor-driver\SIM\passive filter high order.asc

Direct Newton iteration for .op point succeeded.

Date: Mon Feb 23 05:12:20 2015
Total elapsed time: 0.111 seconds.

tnom = 27
temp = 27
method = trap
totiter = 4
traniter = 0
tranpoints = 0
accept = 0
rejected = 0
matrix size = 12
fillins = 0
solver = Normal
Matrix Compiler1:      34 opcodes
Matrix Compiler2: 1020 bytes object code size

